Version 4
SHEET 1 1572 904
WIRE -208 160 -256 160
WIRE -48 160 -208 160
WIRE 160 160 -48 160
WIRE 320 160 224 160
WIRE 768 160 320 160
WIRE 864 160 768 160
WIRE 960 160 864 160
WIRE 1056 160 960 160
WIRE 1312 160 1232 160
WIRE 1456 160 1312 160
WIRE 768 208 768 160
WIRE 1456 208 1456 160
WIRE 160 224 160 160
WIRE 224 224 224 160
WIRE 960 224 960 160
WIRE 1312 224 1312 160
WIRE 1104 272 1104 224
WIRE 1184 272 1184 224
WIRE 1184 272 1104 272
WIRE 192 336 192 288
WIRE 400 336 192 336
WIRE 960 336 960 288
WIRE 1104 336 1104 272
WIRE 1104 336 960 336
WIRE 1312 336 1312 288
WIRE 1312 336 1104 336
WIRE 1456 336 1456 288
WIRE 1456 336 1312 336
WIRE -48 384 -48 160
WIRE 128 384 -48 384
WIRE 320 384 320 160
WIRE 320 384 240 384
WIRE 672 384 672 352
WIRE 768 384 768 272
WIRE 768 384 672 384
WIRE -256 400 -256 160
WIRE 768 416 768 384
WIRE 128 432 128 384
WIRE 240 432 240 384
WIRE 240 576 240 528
WIRE 400 576 400 336
WIRE 400 576 240 576
WIRE 128 608 128 528
WIRE 240 608 240 576
WIRE -256 720 -256 480
WIRE 128 720 128 688
WIRE 128 720 -256 720
WIRE 240 720 240 688
WIRE 240 720 128 720
WIRE 768 720 768 496
WIRE 768 720 240 720
WIRE 1104 720 1104 336
WIRE 1104 720 768 720
WIRE 128 752 128 720
FLAG 128 752 0
FLAG 864 160 Power_OR
FLAG -208 160 VUSB
FLAG 672 352 V30
FLAG 1456 160 3V3_OUT
SYMBOL res 112 592 R0
SYMATTR InstName R1
SYMATTR Value 100k
SYMBOL res 224 592 R0
SYMATTR InstName R2
SYMATTR Value 100k
SYMBOL AutoGenerated/DZDH0401DW 112 480 R0
SYMATTR InstName U2
SYMBOL voltage 768 400 R0
WINDOW 0 -53 25 Left 2
WINDOW 3 -308 100 Left 2
SYMATTR InstName V1
SYMATTR Value PULSE(0 30 0.5 10n 10n 5 10)
SYMATTR SpiceLine Rser=0
SYMBOL voltage -256 384 R0
WINDOW 0 -53 25 Left 2
WINDOW 3 -308 100 Left 2
SYMATTR InstName V3
SYMATTR Value PULSE(0 4.5 1 10n 10n 1 2)
SYMATTR SpiceLine Rser=0
SYMBOL AutoGenerated/DMP6110SVT 192 256 R0
SYMATTR InstName U1
SYMBOL AutoGenerated/TPS7B6933-Q1_TRANS 1136 176 R0
SYMATTR InstName U3
SYMBOL res 1440 192 R0
SYMATTR InstName R3
SYMATTR Value 40
SYMBOL cap 944 224 R0
SYMATTR InstName C1
SYMATTR Value 10µ
SYMBOL cap 1296 224 R0
SYMATTR InstName C2
SYMATTR Value 4.7µ
SYMBOL AutoGenerated/BAT160C 768 240 R0
SYMATTR InstName U4
TEXT -536 176 Left 2 !.tran 20s
TEXT 80 824 Left 2 ;BIAS resistor was decreased from 1MEG to 100K to increase the\nturn on speed of the FET. The 1 initial 1MEG value resulted in a \nslow turn on time so the Power_OR rail would drop below 4V\nwhich is the minimum input voltage for U3
